blazegraph/test/dss/WSU/PV_10pen.dss
New PVsystem.PV_1000 phases=1 Bus1=SX3178981B.1 kV=0.12 kVA=7.6309 pf=1
New PVsystem.PV_1001 phases=1 Bus1=SX3178981B.2 kV=0.12 kVA=2.0991 pf=1
New PVsystem.PV_1002 phases=1 Bus1=SX3197625C.1 kV=0.12 kVA=4.2728 pf=1
New PVsystem.PV_1003 phases=1 Bus1=SX3197625C.2 kV=0.12 kVA=1.8272 pf=1
New PVsystem.PV_1004 phases=1 Bus1=SX2841629C.1 kV=0.12 kVA=8.6843 pf=1
New PVsystem.PV_1005 phases=1 Bus1=SX2841629C.2 kV=0.12 kVA=6.5757 pf=1
New PVsystem.PV_1006 phases=1 Bus1=SX3010569A.1 kV=0.12 kVA=7.3609 pf=1
New PVsystem.PV_1007 phases=1 Bus1=SX3010569A.2 kV=0.12 kVA=5.9391 pf=1
New PVsystem.PV_1008 phases=1 Bus1=SX2691948B.1 kV=0.12 kVA=2.66 pf=1
New PVsystem.PV_1009 phases=1 Bus1=SX2691948B.2 kV=0.12 kVA=3.18 pf=1
New PVsystem.PV_1010 phases=1 Bus1=SX2730108C.1 kV=0.12 kVA=4.023 pf=1
New PVsystem.PV_1011 phases=1 Bus1=SX2730108C.2 kV=0.12 kVA=2.077 pf=1
New PVsystem.PV_1012 phases=1 Bus1=SX3198348A.1 kV=0.12 kVA=10.74 pf=1
New PVsystem.PV_1013 phases=1 Bus1=SX3198348A.2 kV=0.12 kVA=7 pf=1
New PVsystem.PV_1014 phases=1 Bus1=SX3048965B.1 kV=0.12 kVA=6.9718 pf=1
New PVsystem.PV_1015 phases=1 Bus1=SX3048965B.2 kV=0.12 kVA=7.6182 pf=1
New PVsystem.PV_1016 phases=1 Bus1=SX2748125C.1 kV=0.12 kVA=5.6047 pf=1
New PVsystem.PV_1017 phases=1 Bus1=SX2748125C.2 kV=0.12 kVA=4.5653 pf=1
New PVsystem.PV_1018 phases=1 Bus1=SX3254207A.1 kV=0.12 kVA=2.5208 pf=1
New PVsystem.PV_1019 phases=1 Bus1=SX3254207A.2 kV=0.12 kVA=2.7992 pf=1
New PVsystem.PV_1020 phases=1 Bus1=SX2990826B.1 kV=0.12 kVA=2.3154 pf=1
New PVsystem.PV_1021 phases=1 Bus1=SX2990826B.2 kV=0.12 kVA=7.4146 pf=1
New PVsystem.PV_1022 phases=1 Bus1=SX2990098A.1 kV=0.12 kVA=10.9086 pf=1
New PVsystem.PV_1023 phases=1 Bus1=SX2990098A.2 kV=0.12 kVA=6.8314 pf=1
New PVsystem.PV_1024 phases=1 Bus1=SX2954352C.1 kV=0.12 kVA=7.4183 pf=1
New PVsystem.PV_1025 phases=1 Bus1=SX2954352C.2 kV=0.12 kVA=2.7517 pf=1
New PVsystem.PV_1026 phases=1 Bus1=SX2766727B.1 kV=0.12 kVA=0.32355 pf=1
New PVsystem.PV_1027 phases=1 Bus1=SX2766727B.2 kV=0.12 kVA=5.5164 pf=1
New PVsystem.PV_1028 phases=1 Bus1=SX2724120C.1 kV=0.12 kVA=5.1332 pf=1
New PVsystem.PV_1029 phases=1 Bus1=SX2724120C.2 kV=0.12 kVA=5.0368 pf=1
New PVsystem.PV_1030 phases=1 Bus1=SX2748130B.1 kV=0.12 kVA=0.89255 pf=1
New PVsystem.PV_1031 phases=1 Bus1=SX2748130B.2 kV=0.12 kVA=8.8375 pf=1
New PVsystem.PV_1032 phases=1 Bus1=SX3122813A.1 kV=0.12 kVA=2.2973 pf=1
New PVsystem.PV_1033 phases=1 Bus1=SX3122813A.2 kV=0.12 kVA=3.0227 pf=1
New PVsystem.PV_1034 phases=1 Bus1=SX3157718A.1 kV=0.12 kVA=4.564 pf=1
New PVsystem.PV_1035 phases=1 Bus1=SX3157718A.2 kV=0.12 kVA=0.756 pf=1
New PVsystem.PV_1036 phases=1 Bus1=SX2767340C.1 kV=0.12 kVA=1.2468 pf=1
New PVsystem.PV_1037 phases=1 Bus1=SX2767340C.2 kV=0.12 kVA=29.2732 pf=1
New PVsystem.PV_1038 phases=1 Bus1=SX3197626C.1 kV=0.12 kVA=5.6751 pf=1
New PVsystem.PV_1039 phases=1 Bus1=SX3197626C.2 kV=0.12 kVA=0.42487 pf=1
New PVsystem.PV_1040 phases=1 Bus1=SX3142079B.1 kV=0.12 kVA=4.2369 pf=1
New PVsystem.PV_1041 phases=1 Bus1=SX3142079B.2 kV=0.12 kVA=1.6031 pf=1
New PVsystem.PV_1042 phases=1 Bus1=SX2822870C.1 kV=0.12 kVA=5.2935 pf=1
New PVsystem.PV_1043 phases=1 Bus1=SX2822870C.2 kV=0.12 kVA=0.80654 pf=1
New PVsystem.PV_1044 phases=1 Bus1=SX2851933A.1 kV=0.12 kVA=5.8496 pf=1
New PVsystem.PV_1045 phases=1 Bus1=SX2851933A.2 kV=0.12 kVA=3.0204 pf=1
New PVsystem.PV_1046 phases=1 Bus1=SX2691952A.1 kV=0.12 kVA=2.7175 pf=1
New PVsystem.PV_1047 phases=1 Bus1=SX2691952A.2 kV=0.12 kVA=2.6025 pf=1
New PVsystem.PV_1048 phases=1 Bus1=SX3727711A.1 kV=0.12 kVA=0.15753 pf=1
New PVsystem.PV_1049 phases=1 Bus1=SX3727711A.2 kV=0.12 kVA=5.1625 pf=1
New PVsystem.PV_1050 phases=1 Bus1=SX2748128C.1 kV=0.12 kVA=2.877 pf=1
New PVsystem.PV_1051 phases=1 Bus1=SX2748128C.2 kV=0.12 kVA=7.293 pf=1
New PVsystem.PV_1052 phases=1 Bus1=SX3235242C.1 kV=0.12 kVA=6.5496 pf=1
New PVsystem.PV_1053 phases=1 Bus1=SX3235242C.2 kV=0.12 kVA=3.6204 pf=1
New PVsystem.PV_1054 phases=1 Bus1=SX3253570C.1 kV=0.12 kVA=0.65421 pf=1
New PVsystem.PV_1055 phases=1 Bus1=SX3253570C.2 kV=0.12 kVA=9.5158 pf=1
New PVsystem.PV_1056 phases=1 Bus1=SX2879078A.1 kV=0.12 kVA=1.8109 pf=1
New PVsystem.PV_1057 phases=1 Bus1=SX2879078A.2 kV=0.12 kVA=3.5091 pf=1
New PVsystem.PV_1058 phases=1 Bus1=SX3254869B.1 kV=0.12 kVA=2.5527 pf=1
New PVsystem.PV_1059 phases=1 Bus1=SX3254869B.2 kV=0.12 kVA=3.2873 pf=1
New PVsystem.PV_1060 phases=1 Bus1=SX3122821B.1 kV=0.12 kVA=0.81977 pf=1
New PVsystem.PV_1061 phases=1 Bus1=SX3122821B.2 kV=0.12 kVA=8.9102 pf=1
New PVsystem.PV_1062 phases=1 Bus1=SX2916620B.1 kV=0.12 kVA=3.3718 pf=1
New PVsystem.PV_1063 phases=1 Bus1=SX2916620B.2 kV=0.12 kVA=0.5182 pf=1
New PVsystem.PV_1064 phases=1 Bus1=SX2692660A.1 kV=0.12 kVA=2.6924 pf=1
New PVsystem.PV_1065 phases=1 Bus1=SX2692660A.2 kV=0.12 kVA=15.0476 pf=1
New PVsystem.PV_1066 phases=1 Bus1=SX2748143A.1 kV=0.12 kVA=2.1588 pf=1
New PVsystem.PV_1067 phases=1 Bus1=SX2748143A.2 kV=0.12 kVA=6.7112 pf=1
New PVsystem.PV_1068 phases=1 Bus1=SX3067506C.1 kV=0.12 kVA=0.10878 pf=1
New PVsystem.PV_1069 phases=1 Bus1=SX3067506C.2 kV=0.12 kVA=3.9612 pf=1
New PVsystem.PV_1070 phases=1 Bus1=SX2897790C.1 kV=0.12 kVA=3.1676 pf=1
New PVsystem.PV_1071 phases=1 Bus1=SX2897790C.2 kV=0.12 kVA=7.0024 pf=1
New PVsystem.PV_1072 phases=1 Bus1=SX2805036B.1 kV=0.12 kVA=1.8518 pf=1
New PVsystem.PV_1073 phases=1 Bus1=SX2805036B.2 kV=0.12 kVA=2.0382 pf=1
New PVsystem.PV_1074 phases=1 Bus1=SX2991902B.1 kV=0.12 kVA=1.7171 pf=1
New PVsystem.PV_1075 phases=1 Bus1=SX2991902B.2 kV=0.12 kVA=8.0129 pf=1
New PVsystem.PV_1076 phases=1 Bus1=SX2785537A.1 kV=0.12 kVA=2.5929 pf=1
New PVsystem.PV_1077 phases=1 Bus1=SX2785537A.2 kV=0.12 kVA=2.7271 pf=1
New PVsystem.PV_1078 phases=1 Bus1=SX2710544A.1 kV=0.12 kVA=0.47336 pf=1
New PVsystem.PV_1079 phases=1 Bus1=SX2710544A.2 kV=0.12 kVA=4.8466 pf=1
New PVsystem.PV_1080 phases=1 Bus1=SX2952003B.1 kV=0.12 kVA=1.186 pf=1
New PVsystem.PV_1081 phases=1 Bus1=SX2952003B.2 kV=0.12 kVA=8.544 pf=1
New PVsystem.PV_1082 phases=1 Bus1=SX3122823B.1 kV=0.12 kVA=1.075 pf=1
New PVsystem.PV_1083 phases=1 Bus1=SX3122823B.2 kV=0.12 kVA=8.655 pf=1
New PVsystem.PV_1084 phases=1 Bus1=SX3048228C.1 kV=0.12 kVA=3.0541 pf=1
New PVsystem.PV_1085 phases=1 Bus1=SX3048228C.2 kV=0.12 kVA=7.1159 pf=1
New PVsystem.PV_1086 phases=1 Bus1=SX3179608C.1 kV=0.12 kVA=12.2756 pf=1
New PVsystem.PV_1087 phases=1 Bus1=SX3179608C.2 kV=0.12 kVA=2.9844 pf=1
New PVsystem.PV_1088 phases=1 Bus1=SX2970804C.1 kV=0.12 kVA=8.3689 pf=1
New PVsystem.PV_1089 phases=1 Bus1=SX2970804C.2 kV=0.12 kVA=1.8011 pf=1
New PVsystem.PV_1090 phases=1 Bus1=SX3626914C.1 kV=0.12 kVA=4.5732 pf=1
New PVsystem.PV_1091 phases=1 Bus1=SX3626914C.2 kV=0.12 kVA=1.5268 pf=1
New PVsystem.PV_1092 phases=1 Bus1=SX3235245C.1 kV=0.12 kVA=5.0768 pf=1
New PVsystem.PV_1093 phases=1 Bus1=SX3235245C.2 kV=0.12 kVA=1.0232 pf=1
New PVsystem.PV_1094 phases=1 Bus1=SX2748132A.1 kV=0.12 kVA=0.43807 pf=1
New PVsystem.PV_1095 phases=1 Bus1=SX2748132A.2 kV=0.12 kVA=4.8819 pf=1
New PVsystem.PV_1096 phases=1 Bus1=SX3235255B.1 kV=0.12 kVA=0.46948 pf=1
New PVsystem.PV_1097 phases=1 Bus1=SX3235255B.2 kV=0.12 kVA=1.4805 pf=1
New PVsystem.PV_1098 phases=1 Bus1=SX2730163C.1 kV=0.12 kVA=9.6915 pf=1
New PVsystem.PV_1099 phases=1 Bus1=SX2730163C.2 kV=0.12 kVA=0.4785 pf=1
New PVsystem.PV_1100 phases=1 Bus1=SX2841625C.1 kV=0.12 kVA=1.8587 pf=1
New PVsystem.PV_1101 phases=1 Bus1=SX2841625C.2 kV=0.12 kVA=2.2113 pf=1
New PVsystem.PV_1102 phases=1 Bus1=SX3197636B.1 kV=0.12 kVA=8.9716 pf=1
New PVsystem.PV_1103 phases=1 Bus1=SX3197636B.2 kV=0.12 kVA=0.75844 pf=1
New PVsystem.PV_1104 phases=1 Bus1=SX2710519A.1 kV=0.12 kVA=2.4464 pf=1
New PVsystem.PV_1105 phases=1 Bus1=SX2710519A.2 kV=0.12 kVA=1.1036 pf=1
New PVsystem.PV_1106 phases=1 Bus1=SX3231255C.1 kV=0.12 kVA=3.2665 pf=1
New PVsystem.PV_1107 phases=1 Bus1=SX3231255C.2 kV=0.12 kVA=6.9035 pf=1
New PVsystem.PV_1108 phases=1 Bus1=SX2805031C.1 kV=0.12 kVA=2.2207 pf=1
New PVsystem.PV_1109 phases=1 Bus1=SX2805031C.2 kV=0.12 kVA=13.0393 pf=1
New PVsystem.PV_1110 phases=1 Bus1=SX3122824A.1 kV=0.12 kVA=3.609 pf=1
New PVsystem.PV_1111 phases=1 Bus1=SX3122824A.2 kV=0.12 kVA=1.711 pf=1
New PVsystem.PV_1112 phases=1 Bus1=SX2710509C.1 kV=0.12 kVA=5.9329 pf=1
New PVsystem.PV_1113 phases=1 Bus1=SX2710509C.2 kV=0.12 kVA=0.16709 pf=1
New PVsystem.PV_1114 phases=1 Bus1=SX2915534A.1 kV=0.12 kVA=4.0695 pf=1
New PVsystem.PV_1115 phases=1 Bus1=SX2915534A.2 kV=0.12 kVA=9.2305 pf=1
New PVsystem.PV_1116 phases=1 Bus1=SX2955077C.1 kV=0.12 kVA=9.6279 pf=1
New PVsystem.PV_1117 phases=1 Bus1=SX2955077C.2 kV=0.12 kVA=0.54214 pf=1
New PVsystem.PV_1118 phases=1 Bus1=SX3195310A.1 kV=0.12 kVA=6.9959 pf=1
New PVsystem.PV_1119 phases=1 Bus1=SX3195310A.2 kV=0.12 kVA=1.8741 pf=1
New PVsystem.PV_1120 phases=1 Bus1=SX3178979C.1 kV=0.12 kVA=7.1515 pf=1
New PVsystem.PV_1121 phases=1 Bus1=SX3178979C.2 kV=0.12 kVA=8.1085 pf=1
New PVsystem.PV_1122 phases=1 Bus1=SX3030199C.1 kV=0.12 kVA=5.4408 pf=1
New PVsystem.PV_1123 phases=1 Bus1=SX3030199C.2 kV=0.12 kVA=4.7292 pf=1
New PVsystem.PV_1124 phases=1 Bus1=SX2802481A.1 kV=0.12 kVA=20.7201 pf=1
New PVsystem.PV_1125 phases=1 Bus1=SX2802481A.2 kV=0.12 kVA=5.8799 pf=1
New PVsystem.PV_1126 phases=1 Bus1=SX3047289A.1 kV=0.12 kVA=3.8338 pf=1
New PVsystem.PV_1127 phases=1 Bus1=SX3047289A.2 kV=0.12 kVA=13.9062 pf=1
New PVsystem.PV_1128 phases=1 Bus1=SX2767409B.1 kV=0.12 kVA=6.9735 pf=1
New PVsystem.PV_1129 phases=1 Bus1=SX2767409B.2 kV=0.12 kVA=2.7565 pf=1
New PVsystem.PV_1130 phases=1 Bus1=SX3189189B.1 kV=0.12 kVA=4.1269 pf=1
New PVsystem.PV_1131 phases=1 Bus1=SX3189189B.2 kV=0.12 kVA=1.7131 pf=1
New PVsystem.PV_1132 phases=1 Bus1=SX3066814B.1 kV=0.12 kVA=0.030983 pf=1
New PVsystem.PV_1133 phases=1 Bus1=SX3066814B.2 kV=0.12 kVA=3.859 pf=1
New PVsystem.PV_1134 phases=1 Bus1=SX3104113A.1 kV=0.12 kVA=4.7663 pf=1
New PVsystem.PV_1135 phases=1 Bus1=SX3104113A.2 kV=0.12 kVA=4.1037 pf=1
New PVsystem.PV_1136 phases=1 Bus1=SX3727712A.1 kV=0.12 kVA=3.8943 pf=1
New PVsystem.PV_1137 phases=1 Bus1=SX3727712A.2 kV=0.12 kVA=4.9757 pf=1
New PVsystem.PV_1138 phases=1 Bus1=SX2711224B.1 kV=0.12 kVA=1.0289 pf=1
New PVsystem.PV_1139 phases=1 Bus1=SX2711224B.2 kV=0.12 kVA=2.8611 pf=1
New PVsystem.PV_1140 phases=1 Bus1=SX3067478A.1 kV=0.12 kVA=1.3327 pf=1
New PVsystem.PV_1141 phases=1 Bus1=SX3067478A.2 kV=0.12 kVA=11.9673 pf=1
New PVsystem.PV_1142 phases=1 Bus1=SX2879079B.1 kV=0.12 kVA=3.4935 pf=1
New PVsystem.PV_1143 phases=1 Bus1=SX2879079B.2 kV=0.12 kVA=2.3465 pf=1
New PVsystem.PV_1144 phases=1 Bus1=SX2879055C.1 kV=0.12 kVA=3.903 pf=1
New PVsystem.PV_1145 phases=1 Bus1=SX2879055C.2 kV=0.12 kVA=0.16702 pf=1
New PVsystem.PV_1146 phases=1 Bus1=SX3029183B.1 kV=0.12 kVA=0.28472 pf=1
New PVsystem.PV_1147 phases=1 Bus1=SX3029183B.2 kV=0.12 kVA=5.5553 pf=1
New PVsystem.PV_1148 phases=1 Bus1=SX3102793B.1 kV=0.12 kVA=1.509 pf=1
New PVsystem.PV_1149 phases=1 Bus1=SX3102793B.2 kV=0.12 kVA=8.221 pf=1
New PVsystem.PV_1150 phases=1 Bus1=SX3104133A.1 kV=0.12 kVA=6.3328 pf=1
New PVsystem.PV_1151 phases=1 Bus1=SX3104133A.2 kV=0.12 kVA=2.5372 pf=1
New PVsystem.PV_1152 phases=1 Bus1=SX2879773A.1 kV=0.12 kVA=5.0981 pf=1
New PVsystem.PV_1153 phases=1 Bus1=SX2879773A.2 kV=0.12 kVA=3.7719 pf=1
New PVsystem.PV_1154 phases=1 Bus1=SX3141396C.1 kV=0.12 kVA=4.4293 pf=1
New PVsystem.PV_1155 phases=1 Bus1=SX3141396C.2 kV=0.12 kVA=1.6707 pf=1
New PVsystem.PV_1156 phases=1 Bus1=SX2973150A.1 kV=0.12 kVA=1.5545 pf=1
New PVsystem.PV_1157 phases=1 Bus1=SX2973150A.2 kV=0.12 kVA=3.7655 pf=1
New PVsystem.PV_1158 phases=1 Bus1=SX2822873B.1 kV=0.12 kVA=3.0772 pf=1
New PVsystem.PV_1159 phases=1 Bus1=SX2822873B.2 kV=0.12 kVA=0.81284 pf=1
New PVsystem.PV_1160 phases=1 Bus1=SX3048211A.1 kV=0.12 kVA=4.9761 pf=1
New PVsystem.PV_1161 phases=1 Bus1=SX3048211A.2 kV=0.12 kVA=3.8939 pf=1
New PVsystem.PV_1162 phases=1 Bus1=SX3252336B.1 kV=0.12 kVA=4.0442 pf=1
New PVsystem.PV_1163 phases=1 Bus1=SX3252336B.2 kV=0.12 kVA=10.5458 pf=1
New PVsystem.PV_1164 phases=1 Bus1=SX3010565C.1 kV=0.12 kVA=1.9073 pf=1
New PVsystem.PV_1165 phases=1 Bus1=SX3010565C.2 kV=0.12 kVA=2.1627 pf=1
New PVsystem.PV_1166 phases=1 Bus1=SX2897805A.1 kV=0.12 kVA=1.2788 pf=1
New PVsystem.PV_1167 phases=1 Bus1=SX2897805A.2 kV=0.12 kVA=7.5912 pf=1
New PVsystem.PV_1168 phases=1 Bus1=SX3027122A.1 kV=0.12 kVA=7.6434 pf=1
New PVsystem.PV_1169 phases=1 Bus1=SX3027122A.2 kV=0.12 kVA=1.2266 pf=1
New PVsystem.PV_1170 phases=1 Bus1=SX3085394C.1 kV=0.12 kVA=5.3101 pf=1
New PVsystem.PV_1171 phases=1 Bus1=SX3085394C.2 kV=0.12 kVA=0.78988 pf=1
New PVsystem.PV_1172 phases=1 Bus1=SX_293471A.1 kV=0.12 kVA=5.1368 pf=1
New PVsystem.PV_1173 phases=1 Bus1=SX_293471A.2 kV=0.12 kVA=3.7332 pf=1
New PVsystem.PV_1174 phases=1 Bus1=SX2879072B.1 kV=0.12 kVA=3.1697 pf=1
New PVsystem.PV_1175 phases=1 Bus1=SX2879072B.2 kV=0.12 kVA=2.6703 pf=1
New PVsystem.PV_1176 phases=1 Bus1=SX3141399C.1 kV=0.12 kVA=11.2695 pf=1
New PVsystem.PV_1177 phases=1 Bus1=SX3141399C.2 kV=0.12 kVA=3.9905 pf=1
New PVsystem.PV_1178 phases=1 Bus1=SX2841637C.1 kV=0.12 kVA=0.27857 pf=1
New PVsystem.PV_1179 phases=1 Bus1=SX2841637C.2 kV=0.12 kVA=9.8914 pf=1
New PVsystem.PV_1180 phases=1 Bus1=SX3728042A.1 kV=0.12 kVA=4.8121 pf=1
New PVsystem.PV_1181 phases=1 Bus1=SX3728042A.2 kV=0.12 kVA=8.4879 pf=1
